Version 4.1
SHEET 1 880 680
WIRE 80 -64 16 -64
WIRE 240 -64 144 -64
WIRE 16 32 16 -64
WIRE 80 32 16 32
WIRE 240 32 240 -64
WIRE 240 32 160 32
WIRE -400 64 -400 48
WIRE 352 64 320 64
WIRE 464 64 432 64
WIRE 624 64 464 64
WIRE 736 64 704 64
WIRE 496 128 496 112
WIRE 112 144 112 128
WIRE 464 144 464 64
WIRE 480 144 464 144
WIRE -64 160 -160 160
WIRE 16 160 16 32
WIRE 16 160 -64 160
WIRE 96 160 16 160
WIRE 736 160 736 64
WIRE 736 160 544 160
WIRE -400 176 -400 144
WIRE -304 176 -400 176
WIRE 240 176 240 32
WIRE 240 176 160 176
WIRE 480 176 240 176
WIRE -160 192 -160 160
WIRE -64 192 -64 160
WIRE 96 192 32 192
WIRE -400 208 -400 176
WIRE -304 208 -304 176
WIRE 496 208 496 192
WIRE 112 224 112 208
WIRE 32 272 32 192
WIRE -160 288 -160 256
WIRE -64 288 -64 272
WIRE -400 304 -400 288
FLAG -160 288 0
FLAG 32 272 0
FLAG 112 128 V+
FLAG 496 112 V+
FLAG 496 208 V-
FLAG 112 224 V-
FLAG -400 48 V+
FLAG -400 304 V-
FLAG -304 208 0
FLAG -64 288 0
FLAG 320 64 0
SYMBOL OpAmps\\ADA4898 128 192 R0
SYMATTR InstName U1
SYMBOL OpAmps\\ADA4898 512 176 R0
SYMATTR InstName U2
SYMBOL cap -176 192 R0
SYMATTR InstName C1
SYMATTR Value 11p
SYMBOL res 176 16 R90
WINDOW 0 0 56 VBottom 2
WINDOW 3 32 56 VTop 2
SYMATTR InstName R1
SYMATTR Value 10k
SYMBOL res 448 48 R90
WINDOW 0 0 56 VBottom 2
WINDOW 3 32 56 VTop 2
SYMATTR InstName R2
SYMATTR Value 300
SYMBOL res 720 48 R90
WINDOW 0 0 56 VBottom 2
WINDOW 3 32 56 VTop 2
SYMATTR InstName R3
SYMATTR Value 1.2k
SYMBOL voltage -400 48 R0
SYMATTR InstName V1
SYMATTR Value 12
SYMBOL voltage -400 192 R0
SYMATTR InstName V2
SYMATTR Value 12
SYMBOL current -64 192 R0
WINDOW 123 24 108 Left 2
WINDOW 39 0 0 Left 0
SYMATTR Value2 AC 1
SYMATTR InstName I1
SYMATTR Value SINE(100u 100u 1)
SYMBOL cap 144 -80 R90
WINDOW 0 0 32 VBottom 2
WINDOW 3 32 32 VTop 2
SYMATTR InstName C2
SYMATTR Value 2p
TEXT -432 376 Left 2 !.tran 1
TEXT 200 360 Left 2 ;.ac dec 100 10 10Meg
